# generated using pymatgen
data_MnAu2
_symmetry_space_group_name_H-M   'P 1'
_cell_length_a   6.78967704
_cell_length_b   6.78967704
_cell_length_c   8.88063639
_cell_angle_alpha   90.00000000
_cell_angle_beta   90.00000000
_cell_angle_gamma   90.00000000
_symmetry_Int_Tables_number   1
_chemical_formula_structural   MnAu2
_chemical_formula_sum   'Mn8 Au16'
_cell_volume   409.39480045
_cell_formula_units_Z   8
loop_
 _symmetry_equiv_pos_site_id
 _symmetry_equiv_pos_as_xyz
  1  'x, y, z'
loop_
 _atom_site_type_symbol
 _atom_site_label
 _atom_site_symmetry_multiplicity
 _atom_site_fract_x
 _atom_site_fract_y
 _atom_site_fract_z
 _atom_site_occupancy
  Mn  Mn1  1  0.000000  0.000000  0.000000  1.0
  Mn  Mn2  1  0.500000  0.500000  0.000000  1.0
  Mn  Mn3  1  0.500000  0.000000  0.000000  1.0
  Mn  Mn4  1  1.000000  0.500000  0.000000  1.0
  Au  Au5  1  0.250000  0.250000  0.840319  1.0
  Au  Au6  1  0.750000  0.750000  0.840319  1.0
  Au  Au7  1  0.750000  0.250000  0.840319  1.0
  Au  Au8  1  1.250000  0.750000  0.840319  1.0
  Au  Au9  1  0.250000  0.250000  0.159681  1.0
  Au  Au10  1  0.750000  0.750000  0.159681  1.0
  Au  Au11  1  0.750000  0.250000  0.159681  1.0
  Au  Au12  1  1.250000  0.750000  0.159681  1.0
  Mn  Mn13  1  0.250000  0.250000  0.500000  1.0
  Mn  Mn14  1  0.750000  0.750000  0.500000  1.0
  Mn  Mn15  1  0.750000  0.250000  0.500000  1.0
  Mn  Mn16  1  1.250000  0.750000  0.500000  1.0
  Au  Au17  1  0.000000  0.000000  0.340319  1.0
  Au  Au18  1  0.500000  0.500000  0.340319  1.0
  Au  Au19  1  0.500000  0.000000  0.340319  1.0
  Au  Au20  1  1.000000  0.500000  0.340319  1.0
  Au  Au21  1  0.000000  0.000000  0.659681  1.0
  Au  Au22  1  0.500000  0.500000  0.659681  1.0
  Au  Au23  1  0.500000  0.000000  0.659681  1.0
  Au  Au24  1  1.000000  0.500000  0.659681  1.0
