# generated using pymatgen
data_MnAu2
_symmetry_space_group_name_H-M   'P 1'
_cell_length_a   3.39483852
_cell_length_b   3.39483852
_cell_length_c  35.03452000
_cell_angle_alpha   90.00000000
_cell_angle_beta   90.00000000
_cell_angle_gamma   90.00000000
_symmetry_Int_Tables_number   1
_chemical_formula_structural   MnAu2
_chemical_formula_sum   'Mn8 Au16'
_cell_volume   409.39480045
_cell_formula_units_Z   8
loop_
 _symmetry_equiv_pos_site_id
 _symmetry_equiv_pos_as_xyz
  1  'x, y, z'
loop_
 _atom_site_type_symbol
 _atom_site_label
 _atom_site_symmetry_multiplicity
 _atom_site_fract_x
 _atom_site_fract_y
 _atom_site_fract_z
 _atom_site_occupancy
Mn Mn1   1  0.000000  0.000000  0.000000  1.0
Mn Mn2   1  0.000000  0.000000  0.250000  1.0
Mn Mn3   1  0.000000  0.000000  0.500000  1.0
Mn Mn4   1  0.000000  0.000000  0.750000  1.0
Au Au5   1  0.500000  0.500000  0.210080  1.0
Au Au6   1  0.500000  0.500000  0.460080  1.0
Au Au7   1  0.500000  0.500000  0.710080  1.0
Au Au8   1  0.500000  0.500000  0.960080  1.0
Au Au9   1  0.500000  0.500000  0.039920  1.0
Au Au10    1  0.500000  0.500000  0.289920  1.0
Au Au11    1  0.500000  0.500000  0.539920  1.0
Au Au12    1  0.500000  0.500000  0.789920  1.0
Mn Mn13    1  0.500000  0.500000  0.125000  1.0
Mn Mn14    1  0.500000  0.500000  0.375000  1.0
Mn Mn15    1  0.500000  0.500000  0.625000  1.0
Fe Fe16    1  0.500000  0.500000  0.875000  1.0
Au Au17    1  0.000000  0.000000  0.085080  1.0
Au Au18    1  0.000000  0.000000  0.335080  1.0
Au Au19    1  0.000000  0.000000  0.585080  1.0
Au Au20    1  0.000000  0.000000  0.835080  1.0
Au Au21    1  0.000000  0.000000  0.164920  1.0
Au Au22    1  0.000000  0.000000  0.414920  1.0
Au Au23    1  0.000000  0.000000  0.664920  1.0
Au Au24    1  0.000000  0.000000  0.914920  1.0
