# generated using pymatgen
data_MnAu2
_symmetry_space_group_name_H-M   'P 1'
_cell_length_a   9.53179941
_cell_length_b   9.53179941
_cell_length_c   4.98566444
_cell_angle_alpha   118.55227291
_cell_angle_beta   90.00000000
_cell_angle_gamma   90.00000000
_symmetry_Int_Tables_number   1
_chemical_formula_structural   MnAu2
_chemical_formula_sum   'Mn8 Au16'
_cell_volume   397.88354019
_cell_formula_units_Z   8
loop_
 _symmetry_equiv_pos_site_id
 _symmetry_equiv_pos_as_xyz
  1  'x, y, z'
loop_
 _atom_site_type_symbol
 _atom_site_label
 _atom_site_symmetry_multiplicity
 _atom_site_fract_x
 _atom_site_fract_y
 _atom_site_fract_z
 _atom_site_occupancy
Mn Mn1   1  0.500000  0.000000  0.000000  1
Fe Fe2   1  0.000000  0.000000  0.000000  1
Mn Mn3   1  0.250000  0.250000  0.000000  1
Mn Mn4   1  0.750000  0.250000  0.000000  1
Mn Mn5   1  0.000000  0.500000  0.000000  1
Fe Fe6   1  0.500000  0.500000  0.000000  1
Mn Mn7   1  0.250000  0.750000  0.000000  1
Mn Mn8   1  0.750000  0.750000  0.000000  1
Au Au9   1  0.000000  0.330000  0.320000  1
Au Au10    1  0.500000  0.330000  0.320000  1
Au Au11    1  0.250000  0.580000  0.320000  1
Au Au12    1  0.750000  0.580000  0.320000  1
Au Au13    1  0.000000  0.830000  0.320000  1
Au Au14    1  0.500000  0.830000  0.320000  1
Au Au15    1  0.750000  0.080000  0.320000  1
Au Au16    1  0.250000  0.080000  0.320000  1
Au Au17    1  0.500000  0.170000  0.680000  1
Au Au18    1  0.000000  0.170000  0.680000  1
Au Au19    1  0.250000  0.420000  0.680000  1
Au Au20    1  0.750000  0.420000  0.680000  1
Au Au21    1  0.000000  0.670000  0.680000  1
Au Au22    1  0.500000  0.670000  0.680000  1
Au Au23    1  0.250000  0.920000  0.680000  1
Au Au24    1  0.750000  0.920000  0.680000  1
