# generated using pymatgen
data_MnAu2
_symmetry_space_group_name_H-M   'P 1'
_cell_length_a   10.18451556
_cell_length_b   10.18451556
_cell_length_c   8.88063639
_cell_angle_alpha   90.00000000
_cell_angle_beta   90.00000000
_cell_angle_gamma   90.00000000
_symmetry_Int_Tables_number   1
_chemical_formula_structural   MnAu2
_chemical_formula_sum   'Mn18 Au36'
_cell_volume   921.13830101
_cell_formula_units_Z   18
loop_
 _symmetry_equiv_pos_site_id
 _symmetry_equiv_pos_as_xyz
  1  'x, y, z'
loop_
 _atom_site_type_symbol
 _atom_site_label
 _atom_site_symmetry_multiplicity
 _atom_site_fract_x
 _atom_site_fract_y
 _atom_site_fract_z
 _atom_site_occupancy
  Mn  Mn1  1  0.000000  0.000000  0.000000  1.0
  Mn  Mn2  1  0.000000  0.333333  0.000000  1.0
  Mn  Mn3  1  0.000000  0.666667  0.000000  1.0
  Mn  Mn4  1  0.333333  0.000000  0.000000  1.0
  Mn  Mn5  1  0.333333  0.333333  0.000000  1.0
  Mn  Mn6  1  0.333333  0.666667  0.000000  1.0
  Mn  Mn7  1  0.666667  0.000000  0.000000  1.0
  Mn  Mn8  1  0.666667  0.333333  0.000000  1.0
  Mn  Mn9  1  0.666667  0.666667  0.000000  1.0
  Au  Au10  1  0.166667  0.166667  0.840319  1.0
  Au  Au11  1  0.166667  0.500000  0.840319  1.0
  Au  Au12  1  0.166667  0.833333  0.840319  1.0
  Au  Au13  1  0.500000  0.166667  0.840319  1.0
  Au  Au14  1  0.500000  0.500000  0.840319  1.0
  Au  Au15  1  0.500000  0.833333  0.840319  1.0
  Au  Au16  1  0.833333  0.166667  0.840319  1.0
  Au  Au17  1  0.833333  0.500000  0.840319  1.0
  Au  Au18  1  0.833333  0.833333  0.840319  1.0
  Au  Au19  1  0.166667  0.166667  0.159681  1.0
  Au  Au20  1  0.166667  0.500000  0.159681  1.0
  Au  Au21  1  0.166667  0.833333  0.159681  1.0
  Au  Au22  1  0.500000  0.166667  0.159681  1.0
  Au  Au23  1  0.500000  0.500000  0.159681  1.0
  Au  Au24  1  0.500000  0.833333  0.159681  1.0
  Au  Au25  1  0.833333  0.166667  0.159681  1.0
  Au  Au26  1  0.833333  0.500000  0.159681  1.0
  Au  Au27  1  0.833333  0.833333  0.159681  1.0
  Mn  Mn28  1  0.166667  0.166667  0.500000  1.0
  Mn  Mn29  1  0.166667  0.500000  0.500000  1.0
  Mn  Mn30  1  0.166667  0.833333  0.500000  1.0
  Mn  Mn31  1  0.500000  0.166667  0.500000  1.0
  Mn  Mn32  1  0.500000  0.500000  0.500000  1.0
  Mn  Mn33  1  0.500000  0.833333  0.500000  1.0
  Mn  Mn34  1  0.833333  0.166667  0.500000  1.0
  Mn  Mn35  1  0.833333  0.500000  0.500000  1.0
  Mn  Mn36  1  0.833333  0.833333  0.500000  1.0
  Au  Au37  1  0.000000  0.000000  0.340319  1.0
  Au  Au38  1  0.000000  0.333333  0.340319  1.0
  Au  Au39  1  0.000000  0.666667  0.340319  1.0
  Au  Au40  1  0.333333  0.000000  0.340319  1.0
  Au  Au41  1  0.333333  0.333333  0.340319  1.0
  Au  Au42  1  0.333333  0.666667  0.340319  1.0
  Au  Au43  1  0.666667  0.000000  0.340319  1.0
  Au  Au44  1  0.666667  0.333333  0.340319  1.0
  Au  Au45  1  0.666667  0.666667  0.340319  1.0
  Au  Au46  1  0.000000  0.000000  0.659681  1.0
  Au  Au47  1  0.000000  0.333333  0.659681  1.0
  Au  Au48  1  0.000000  0.666667  0.659681  1.0
  Au  Au49  1  0.333333  0.000000  0.659681  1.0
  Au  Au50  1  0.333333  0.333333  0.659681  1.0
  Au  Au51  1  0.333333  0.666667  0.659681  1.0
  Au  Au52  1  0.666667  0.000000  0.659681  1.0
  Au  Au53  1  0.666667  0.333333  0.659681  1.0
  Au  Au54  1  0.666667  0.666667  0.659681  1.0
