# generated using pymatgen
data_MnAu2
_symmetry_space_group_name_H-M   'P 1'
_cell_length_a   13.57935408
_cell_length_b   13.57935408
_cell_length_c   35.52254556
_cell_angle_alpha   90.00000000
_cell_angle_beta   90.00000000
_cell_angle_gamma   90.00000000
_symmetry_Int_Tables_number   1
_chemical_formula_structural   MnAu2
_chemical_formula_sum   'Mn128 Au256'
_cell_volume   6550.31680717
_cell_formula_units_Z   128
loop_
 _symmetry_equiv_pos_site_id
 _symmetry_equiv_pos_as_xyz
  1  'x, y, z'
loop_
 _atom_site_type_symbol
 _atom_site_label
 _atom_site_symmetry_multiplicity
 _atom_site_fract_x
 _atom_site_fract_y
 _atom_site_fract_z
 _atom_site_occupancy
  Mn  Mn1  1  0.000000  0.000000  0.000000  1.0
  Mn  Mn2  1  0.000000  0.250000  0.000000  1.0
  Mn  Mn3  1  0.000000  0.500000  0.000000  1.0
  Mn  Mn4  1  0.000000  0.750000  0.000000  1.0
  Mn  Mn5  1  0.250000  0.000000  0.000000  1.0
  Mn  Mn6  1  0.250000  0.250000  0.000000  1.0
  Mn  Mn7  1  0.250000  0.500000  0.000000  1.0
  Mn  Mn8  1  0.250000  0.750000  0.000000  1.0
  Mn  Mn9  1  0.500000  0.000000  0.000000  1.0
  Mn  Mn10  1  0.500000  0.250000  0.000000  1.0
  Mn  Mn11  1  0.500000  0.500000  0.000000  1.0
  Mn  Mn12  1  0.500000  0.750000  0.000000  1.0
  Mn  Mn13  1  0.750000  0.000000  0.000000  1.0
  Mn  Mn14  1  0.750000  0.250000  0.000000  1.0
  Mn  Mn15  1  0.750000  0.500000  0.000000  1.0
  Mn  Mn16  1  0.750000  0.750000  0.000000  1.0
  Mn  Mn17  1  0.000000  0.000000  0.250000  1.0
  Mn  Mn18  1  0.000000  0.250000  0.250000  1.0
  Mn  Mn19  1  0.000000  0.500000  0.250000  1.0
  Mn  Mn20  1  0.000000  0.750000  0.250000  1.0
  Mn  Mn21  1  0.250000  0.000000  0.250000  1.0
  Mn  Mn22  1  0.250000  0.250000  0.250000  1.0
  Mn  Mn23  1  0.250000  0.500000  0.250000  1.0
  Mn  Mn24  1  0.250000  0.750000  0.250000  1.0
  Mn  Mn25  1  0.500000  0.000000  0.250000  1.0
  Mn  Mn26  1  0.500000  0.250000  0.250000  1.0
  Mn  Mn27  1  0.500000  0.500000  0.250000  1.0
  Mn  Mn28  1  0.500000  0.750000  0.250000  1.0
  Mn  Mn29  1  0.750000  0.000000  0.250000  1.0
  Mn  Mn30  1  0.750000  0.250000  0.250000  1.0
  Mn  Mn31  1  0.750000  0.500000  0.250000  1.0
  Mn  Mn32  1  0.750000  0.750000  0.250000  1.0
  Mn  Mn33  1  0.000000  0.000000  0.500000  1.0
  Mn  Mn34  1  0.000000  0.250000  0.500000  1.0
  Mn  Mn35  1  0.000000  0.500000  0.500000  1.0
  Mn  Mn36  1  0.000000  0.750000  0.500000  1.0
  Mn  Mn37  1  0.250000  0.000000  0.500000  1.0
  Mn  Mn38  1  0.250000  0.250000  0.500000  1.0
  Mn  Mn39  1  0.250000  0.500000  0.500000  1.0
  Mn  Mn40  1  0.250000  0.750000  0.500000  1.0
  Mn  Mn41  1  0.500000  0.000000  0.500000  1.0
  Mn  Mn42  1  0.500000  0.250000  0.500000  1.0
  Mn  Mn43  1  0.500000  0.500000  0.500000  1.0
  Mn  Mn44  1  0.500000  0.750000  0.500000  1.0
  Mn  Mn45  1  0.750000  0.000000  0.500000  1.0
  Mn  Mn46  1  0.750000  0.250000  0.500000  1.0
  Mn  Mn47  1  0.750000  0.500000  0.500000  1.0
  Mn  Mn48  1  0.750000  0.750000  0.500000  1.0
  Mn  Mn49  1  0.000000  0.000000  0.750000  1.0
  Mn  Mn50  1  0.000000  0.250000  0.750000  1.0
  Mn  Mn51  1  0.000000  0.500000  0.750000  1.0
  Mn  Mn52  1  0.000000  0.750000  0.750000  1.0
  Mn  Mn53  1  0.250000  0.000000  0.750000  1.0
  Mn  Mn54  1  0.250000  0.250000  0.750000  1.0
  Mn  Mn55  1  0.250000  0.500000  0.750000  1.0
  Mn  Mn56  1  0.250000  0.750000  0.750000  1.0
  Mn  Mn57  1  0.500000  0.000000  0.750000  1.0
  Mn  Mn58  1  0.500000  0.250000  0.750000  1.0
  Mn  Mn59  1  0.500000  0.500000  0.750000  1.0
  Mn  Mn60  1  0.500000  0.750000  0.750000  1.0
  Mn  Mn61  1  0.750000  0.000000  0.750000  1.0
  Mn  Mn62  1  0.750000  0.250000  0.750000  1.0
  Mn  Mn63  1  0.750000  0.500000  0.750000  1.0
  Mn  Mn64  1  0.750000  0.750000  0.750000  1.0
  Au  Au65  1  0.125000  0.125000  0.210080  1.0
  Au  Au66  1  0.125000  0.375000  0.210080  1.0
  Au  Au67  1  0.125000  0.625000  0.210080  1.0
  Au  Au68  1  0.125000  0.875000  0.210080  1.0
  Au  Au69  1  0.375000  0.125000  0.210080  1.0
  Au  Au70  1  0.375000  0.375000  0.210080  1.0
  Au  Au71  1  0.375000  0.625000  0.210080  1.0
  Au  Au72  1  0.375000  0.875000  0.210080  1.0
  Au  Au73  1  0.625000  0.125000  0.210080  1.0
  Au  Au74  1  0.625000  0.375000  0.210080  1.0
  Au  Au75  1  0.625000  0.625000  0.210080  1.0
  Au  Au76  1  0.625000  0.875000  0.210080  1.0
  Au  Au77  1  0.875000  0.125000  0.210080  1.0
  Au  Au78  1  0.875000  0.375000  0.210080  1.0
  Au  Au79  1  0.875000  0.625000  0.210080  1.0
  Au  Au80  1  0.875000  0.875000  0.210080  1.0
  Au  Au81  1  0.125000  0.125000  0.460080  1.0
  Au  Au82  1  0.125000  0.375000  0.460080  1.0
  Au  Au83  1  0.125000  0.625000  0.460080  1.0
  Au  Au84  1  0.125000  0.875000  0.460080  1.0
  Au  Au85  1  0.375000  0.125000  0.460080  1.0
  Au  Au86  1  0.375000  0.375000  0.460080  1.0
  Au  Au87  1  0.375000  0.625000  0.460080  1.0
  Au  Au88  1  0.375000  0.875000  0.460080  1.0
  Au  Au89  1  0.625000  0.125000  0.460080  1.0
  Au  Au90  1  0.625000  0.375000  0.460080  1.0
  Au  Au91  1  0.625000  0.625000  0.460080  1.0
  Au  Au92  1  0.625000  0.875000  0.460080  1.0
  Au  Au93  1  0.875000  0.125000  0.460080  1.0
  Au  Au94  1  0.875000  0.375000  0.460080  1.0
  Au  Au95  1  0.875000  0.625000  0.460080  1.0
  Au  Au96  1  0.875000  0.875000  0.460080  1.0
  Au  Au97  1  0.125000  0.125000  0.710080  1.0
  Au  Au98  1  0.125000  0.375000  0.710080  1.0
  Au  Au99  1  0.125000  0.625000  0.710080  1.0
  Au  Au100  1  0.125000  0.875000  0.710080  1.0
  Au  Au101  1  0.375000  0.125000  0.710080  1.0
  Au  Au102  1  0.375000  0.375000  0.710080  1.0
  Au  Au103  1  0.375000  0.625000  0.710080  1.0
  Au  Au104  1  0.375000  0.875000  0.710080  1.0
  Au  Au105  1  0.625000  0.125000  0.710080  1.0
  Au  Au106  1  0.625000  0.375000  0.710080  1.0
  Au  Au107  1  0.625000  0.625000  0.710080  1.0
  Au  Au108  1  0.625000  0.875000  0.710080  1.0
  Au  Au109  1  0.875000  0.125000  0.710080  1.0
  Au  Au110  1  0.875000  0.375000  0.710080  1.0
  Au  Au111  1  0.875000  0.625000  0.710080  1.0
  Au  Au112  1  0.875000  0.875000  0.710080  1.0
  Au  Au113  1  0.125000  0.125000  0.960080  1.0
  Au  Au114  1  0.125000  0.375000  0.960080  1.0
  Au  Au115  1  0.125000  0.625000  0.960080  1.0
  Au  Au116  1  0.125000  0.875000  0.960080  1.0
  Au  Au117  1  0.375000  0.125000  0.960080  1.0
  Au  Au118  1  0.375000  0.375000  0.960080  1.0
  Au  Au119  1  0.375000  0.625000  0.960080  1.0
  Au  Au120  1  0.375000  0.875000  0.960080  1.0
  Au  Au121  1  0.625000  0.125000  0.960080  1.0
  Au  Au122  1  0.625000  0.375000  0.960080  1.0
  Au  Au123  1  0.625000  0.625000  0.960080  1.0
  Au  Au124  1  0.625000  0.875000  0.960080  1.0
  Au  Au125  1  0.875000  0.125000  0.960080  1.0
  Au  Au126  1  0.875000  0.375000  0.960080  1.0
  Au  Au127  1  0.875000  0.625000  0.960080  1.0
  Au  Au128  1  0.875000  0.875000  0.960080  1.0
  Au  Au129  1  0.125000  0.125000  0.039920  1.0
  Au  Au130  1  0.125000  0.375000  0.039920  1.0
  Au  Au131  1  0.125000  0.625000  0.039920  1.0
  Au  Au132  1  0.125000  0.875000  0.039920  1.0
  Au  Au133  1  0.375000  0.125000  0.039920  1.0
  Au  Au134  1  0.375000  0.375000  0.039920  1.0
  Au  Au135  1  0.375000  0.625000  0.039920  1.0
  Au  Au136  1  0.375000  0.875000  0.039920  1.0
  Au  Au137  1  0.625000  0.125000  0.039920  1.0
  Au  Au138  1  0.625000  0.375000  0.039920  1.0
  Au  Au139  1  0.625000  0.625000  0.039920  1.0
  Au  Au140  1  0.625000  0.875000  0.039920  1.0
  Au  Au141  1  0.875000  0.125000  0.039920  1.0
  Au  Au142  1  0.875000  0.375000  0.039920  1.0
  Au  Au143  1  0.875000  0.625000  0.039920  1.0
  Au  Au144  1  0.875000  0.875000  0.039920  1.0
  Au  Au145  1  0.125000  0.125000  0.289920  1.0
  Au  Au146  1  0.125000  0.375000  0.289920  1.0
  Au  Au147  1  0.125000  0.625000  0.289920  1.0
  Au  Au148  1  0.125000  0.875000  0.289920  1.0
  Au  Au149  1  0.375000  0.125000  0.289920  1.0
  Au  Au150  1  0.375000  0.375000  0.289920  1.0
  Au  Au151  1  0.375000  0.625000  0.289920  1.0
  Au  Au152  1  0.375000  0.875000  0.289920  1.0
  Au  Au153  1  0.625000  0.125000  0.289920  1.0
  Au  Au154  1  0.625000  0.375000  0.289920  1.0
  Au  Au155  1  0.625000  0.625000  0.289920  1.0
  Au  Au156  1  0.625000  0.875000  0.289920  1.0
  Au  Au157  1  0.875000  0.125000  0.289920  1.0
  Au  Au158  1  0.875000  0.375000  0.289920  1.0
  Au  Au159  1  0.875000  0.625000  0.289920  1.0
  Au  Au160  1  0.875000  0.875000  0.289920  1.0
  Au  Au161  1  0.125000  0.125000  0.539920  1.0
  Au  Au162  1  0.125000  0.375000  0.539920  1.0
  Au  Au163  1  0.125000  0.625000  0.539920  1.0
  Au  Au164  1  0.125000  0.875000  0.539920  1.0
  Au  Au165  1  0.375000  0.125000  0.539920  1.0
  Au  Au166  1  0.375000  0.375000  0.539920  1.0
  Au  Au167  1  0.375000  0.625000  0.539920  1.0
  Au  Au168  1  0.375000  0.875000  0.539920  1.0
  Au  Au169  1  0.625000  0.125000  0.539920  1.0
  Au  Au170  1  0.625000  0.375000  0.539920  1.0
  Au  Au171  1  0.625000  0.625000  0.539920  1.0
  Au  Au172  1  0.625000  0.875000  0.539920  1.0
  Au  Au173  1  0.875000  0.125000  0.539920  1.0
  Au  Au174  1  0.875000  0.375000  0.539920  1.0
  Au  Au175  1  0.875000  0.625000  0.539920  1.0
  Au  Au176  1  0.875000  0.875000  0.539920  1.0
  Au  Au177  1  0.125000  0.125000  0.789920  1.0
  Au  Au178  1  0.125000  0.375000  0.789920  1.0
  Au  Au179  1  0.125000  0.625000  0.789920  1.0
  Au  Au180  1  0.125000  0.875000  0.789920  1.0
  Au  Au181  1  0.375000  0.125000  0.789920  1.0
  Au  Au182  1  0.375000  0.375000  0.789920  1.0
  Au  Au183  1  0.375000  0.625000  0.789920  1.0
  Au  Au184  1  0.375000  0.875000  0.789920  1.0
  Au  Au185  1  0.625000  0.125000  0.789920  1.0
  Au  Au186  1  0.625000  0.375000  0.789920  1.0
  Au  Au187  1  0.625000  0.625000  0.789920  1.0
  Au  Au188  1  0.625000  0.875000  0.789920  1.0
  Au  Au189  1  0.875000  0.125000  0.789920  1.0
  Au  Au190  1  0.875000  0.375000  0.789920  1.0
  Au  Au191  1  0.875000  0.625000  0.789920  1.0
  Au  Au192  1  0.875000  0.875000  0.789920  1.0
  Mn  Mn193  1  0.125000  0.125000  0.125000  1.0
  Mn  Mn194  1  0.125000  0.375000  0.125000  1.0
  Mn  Mn195  1  0.125000  0.625000  0.125000  1.0
  Mn  Mn196  1  0.125000  0.875000  0.125000  1.0
  Mn  Mn197  1  0.375000  0.125000  0.125000  1.0
  Mn  Mn198  1  0.375000  0.375000  0.125000  1.0
  Mn  Mn199  1  0.375000  0.625000  0.125000  1.0
  Mn  Mn200  1  0.375000  0.875000  0.125000  1.0
  Mn  Mn201  1  0.625000  0.125000  0.125000  1.0
  Mn  Mn202  1  0.625000  0.375000  0.125000  1.0
  Mn  Mn203  1  0.625000  0.625000  0.125000  1.0
  Mn  Mn204  1  0.625000  0.875000  0.125000  1.0
  Mn  Mn205  1  0.875000  0.125000  0.125000  1.0
  Mn  Mn206  1  0.875000  0.375000  0.125000  1.0
  Mn  Mn207  1  0.875000  0.625000  0.125000  1.0
  Mn  Mn208  1  0.875000  0.875000  0.125000  1.0
  Mn  Mn209  1  0.125000  0.125000  0.375000  1.0
  Mn  Mn210  1  0.125000  0.375000  0.375000  1.0
  Mn  Mn211  1  0.125000  0.625000  0.375000  1.0
  Mn  Mn212  1  0.125000  0.875000  0.375000  1.0
  Mn  Mn213  1  0.375000  0.125000  0.375000  1.0
  Mn  Mn214  1  0.375000  0.375000  0.375000  1.0
  Mn  Mn215  1  0.375000  0.625000  0.375000  1.0
  Mn  Mn216  1  0.375000  0.875000  0.375000  1.0
  Mn  Mn217  1  0.625000  0.125000  0.375000  1.0
  Mn  Mn218  1  0.625000  0.375000  0.375000  1.0
  Mn  Mn219  1  0.625000  0.625000  0.375000  1.0
  Mn  Mn220  1  0.625000  0.875000  0.375000  1.0
  Mn  Mn221  1  0.875000  0.125000  0.375000  1.0
  Mn  Mn222  1  0.875000  0.375000  0.375000  1.0
  Mn  Mn223  1  0.875000  0.625000  0.375000  1.0
  Mn  Mn224  1  0.875000  0.875000  0.375000  1.0
  Mn  Mn225  1  0.125000  0.125000  0.625000  1.0
  Mn  Mn226  1  0.125000  0.375000  0.625000  1.0
  Mn  Mn227  1  0.125000  0.625000  0.625000  1.0
  Mn  Mn228  1  0.125000  0.875000  0.625000  1.0
  Mn  Mn229  1  0.375000  0.125000  0.625000  1.0
  Mn  Mn230  1  0.375000  0.375000  0.625000  1.0
  Mn  Mn231  1  0.375000  0.625000  0.625000  1.0
  Mn  Mn232  1  0.375000  0.875000  0.625000  1.0
  Mn  Mn233  1  0.625000  0.125000  0.625000  1.0
  Mn  Mn234  1  0.625000  0.375000  0.625000  1.0
  Mn  Mn235  1  0.625000  0.625000  0.625000  1.0
  Mn  Mn236  1  0.625000  0.875000  0.625000  1.0
  Mn  Mn237  1  0.875000  0.125000  0.625000  1.0
  Mn  Mn238  1  0.875000  0.375000  0.625000  1.0
  Mn  Mn239  1  0.875000  0.625000  0.625000  1.0
  Mn  Mn240  1  0.875000  0.875000  0.625000  1.0
  Mn  Mn241  1  0.125000  0.125000  0.875000  1.0
  Mn  Mn242  1  0.125000  0.375000  0.875000  1.0
  Mn  Mn243  1  0.125000  0.625000  0.875000  1.0
  Mn  Mn244  1  0.125000  0.875000  0.875000  1.0
  Mn  Mn245  1  0.375000  0.125000  0.875000  1.0
  Mn  Mn246  1  0.375000  0.375000  0.875000  1.0
  Mn  Mn247  1  0.375000  0.625000  0.875000  1.0
  Mn  Mn248  1  0.375000  0.875000  0.875000  1.0
  Mn  Mn249  1  0.625000  0.125000  0.875000  1.0
  Mn  Mn250  1  0.625000  0.375000  0.875000  1.0
  Mn  Mn251  1  0.625000  0.625000  0.875000  1.0
  Mn  Mn252  1  0.625000  0.875000  0.875000  1.0
  Mn  Mn253  1  0.875000  0.125000  0.875000  1.0
  Mn  Mn254  1  0.875000  0.375000  0.875000  1.0
  Mn  Mn255  1  0.875000  0.625000  0.875000  1.0
  Mn  Mn256  1  0.875000  0.875000  0.875000  1.0
  Au  Au257  1  0.000000  0.000000  0.085080  1.0
  Au  Au258  1  0.000000  0.250000  0.085080  1.0
  Au  Au259  1  0.000000  0.500000  0.085080  1.0
  Au  Au260  1  0.000000  0.750000  0.085080  1.0
  Au  Au261  1  0.250000  0.000000  0.085080  1.0
  Au  Au262  1  0.250000  0.250000  0.085080  1.0
  Au  Au263  1  0.250000  0.500000  0.085080  1.0
  Au  Au264  1  0.250000  0.750000  0.085080  1.0
  Au  Au265  1  0.500000  0.000000  0.085080  1.0
  Au  Au266  1  0.500000  0.250000  0.085080  1.0
  Au  Au267  1  0.500000  0.500000  0.085080  1.0
  Au  Au268  1  0.500000  0.750000  0.085080  1.0
  Au  Au269  1  0.750000  0.000000  0.085080  1.0
  Au  Au270  1  0.750000  0.250000  0.085080  1.0
  Au  Au271  1  0.750000  0.500000  0.085080  1.0
  Au  Au272  1  0.750000  0.750000  0.085080  1.0
  Au  Au273  1  0.000000  0.000000  0.335080  1.0
  Au  Au274  1  0.000000  0.250000  0.335080  1.0
  Au  Au275  1  0.000000  0.500000  0.335080  1.0
  Au  Au276  1  0.000000  0.750000  0.335080  1.0
  Au  Au277  1  0.250000  0.000000  0.335080  1.0
  Au  Au278  1  0.250000  0.250000  0.335080  1.0
  Au  Au279  1  0.250000  0.500000  0.335080  1.0
  Au  Au280  1  0.250000  0.750000  0.335080  1.0
  Au  Au281  1  0.500000  0.000000  0.335080  1.0
  Au  Au282  1  0.500000  0.250000  0.335080  1.0
  Au  Au283  1  0.500000  0.500000  0.335080  1.0
  Au  Au284  1  0.500000  0.750000  0.335080  1.0
  Au  Au285  1  0.750000  0.000000  0.335080  1.0
  Au  Au286  1  0.750000  0.250000  0.335080  1.0
  Au  Au287  1  0.750000  0.500000  0.335080  1.0
  Au  Au288  1  0.750000  0.750000  0.335080  1.0
  Au  Au289  1  0.000000  0.000000  0.585080  1.0
  Au  Au290  1  0.000000  0.250000  0.585080  1.0
  Au  Au291  1  0.000000  0.500000  0.585080  1.0
  Au  Au292  1  0.000000  0.750000  0.585080  1.0
  Au  Au293  1  0.250000  0.000000  0.585080  1.0
  Au  Au294  1  0.250000  0.250000  0.585080  1.0
  Au  Au295  1  0.250000  0.500000  0.585080  1.0
  Au  Au296  1  0.250000  0.750000  0.585080  1.0
  Au  Au297  1  0.500000  0.000000  0.585080  1.0
  Au  Au298  1  0.500000  0.250000  0.585080  1.0
  Au  Au299  1  0.500000  0.500000  0.585080  1.0
  Au  Au300  1  0.500000  0.750000  0.585080  1.0
  Au  Au301  1  0.750000  0.000000  0.585080  1.0
  Au  Au302  1  0.750000  0.250000  0.585080  1.0
  Au  Au303  1  0.750000  0.500000  0.585080  1.0
  Au  Au304  1  0.750000  0.750000  0.585080  1.0
  Au  Au305  1  0.000000  0.000000  0.835080  1.0
  Au  Au306  1  0.000000  0.250000  0.835080  1.0
  Au  Au307  1  0.000000  0.500000  0.835080  1.0
  Au  Au308  1  0.000000  0.750000  0.835080  1.0
  Au  Au309  1  0.250000  0.000000  0.835080  1.0
  Au  Au310  1  0.250000  0.250000  0.835080  1.0
  Au  Au311  1  0.250000  0.500000  0.835080  1.0
  Au  Au312  1  0.250000  0.750000  0.835080  1.0
  Au  Au313  1  0.500000  0.000000  0.835080  1.0
  Au  Au314  1  0.500000  0.250000  0.835080  1.0
  Au  Au315  1  0.500000  0.500000  0.835080  1.0
  Au  Au316  1  0.500000  0.750000  0.835080  1.0
  Au  Au317  1  0.750000  0.000000  0.835080  1.0
  Au  Au318  1  0.750000  0.250000  0.835080  1.0
  Au  Au319  1  0.750000  0.500000  0.835080  1.0
  Au  Au320  1  0.750000  0.750000  0.835080  1.0
  Au  Au321  1  0.000000  0.000000  0.164920  1.0
  Au  Au322  1  0.000000  0.250000  0.164920  1.0
  Au  Au323  1  0.000000  0.500000  0.164920  1.0
  Au  Au324  1  0.000000  0.750000  0.164920  1.0
  Au  Au325  1  0.250000  0.000000  0.164920  1.0
  Au  Au326  1  0.250000  0.250000  0.164920  1.0
  Au  Au327  1  0.250000  0.500000  0.164920  1.0
  Au  Au328  1  0.250000  0.750000  0.164920  1.0
  Au  Au329  1  0.500000  0.000000  0.164920  1.0
  Au  Au330  1  0.500000  0.250000  0.164920  1.0
  Au  Au331  1  0.500000  0.500000  0.164920  1.0
  Au  Au332  1  0.500000  0.750000  0.164920  1.0
  Au  Au333  1  0.750000  0.000000  0.164920  1.0
  Au  Au334  1  0.750000  0.250000  0.164920  1.0
  Au  Au335  1  0.750000  0.500000  0.164920  1.0
  Au  Au336  1  0.750000  0.750000  0.164920  1.0
  Au  Au337  1  0.000000  0.000000  0.414920  1.0
  Au  Au338  1  0.000000  0.250000  0.414920  1.0
  Au  Au339  1  0.000000  0.500000  0.414920  1.0
  Au  Au340  1  0.000000  0.750000  0.414920  1.0
  Au  Au341  1  0.250000  0.000000  0.414920  1.0
  Au  Au342  1  0.250000  0.250000  0.414920  1.0
  Au  Au343  1  0.250000  0.500000  0.414920  1.0
  Au  Au344  1  0.250000  0.750000  0.414920  1.0
  Au  Au345  1  0.500000  0.000000  0.414920  1.0
  Au  Au346  1  0.500000  0.250000  0.414920  1.0
  Au  Au347  1  0.500000  0.500000  0.414920  1.0
  Au  Au348  1  0.500000  0.750000  0.414920  1.0
  Au  Au349  1  0.750000  0.000000  0.414920  1.0
  Au  Au350  1  0.750000  0.250000  0.414920  1.0
  Au  Au351  1  0.750000  0.500000  0.414920  1.0
  Au  Au352  1  0.750000  0.750000  0.414920  1.0
  Au  Au353  1  0.000000  0.000000  0.664920  1.0
  Au  Au354  1  0.000000  0.250000  0.664920  1.0
  Au  Au355  1  0.000000  0.500000  0.664920  1.0
  Au  Au356  1  0.000000  0.750000  0.664920  1.0
  Au  Au357  1  0.250000  0.000000  0.664920  1.0
  Au  Au358  1  0.250000  0.250000  0.664920  1.0
  Au  Au359  1  0.250000  0.500000  0.664920  1.0
  Au  Au360  1  0.250000  0.750000  0.664920  1.0
  Au  Au361  1  0.500000  0.000000  0.664920  1.0
  Au  Au362  1  0.500000  0.250000  0.664920  1.0
  Au  Au363  1  0.500000  0.500000  0.664920  1.0
  Au  Au364  1  0.500000  0.750000  0.664920  1.0
  Au  Au365  1  0.750000  0.000000  0.664920  1.0
  Au  Au366  1  0.750000  0.250000  0.664920  1.0
  Au  Au367  1  0.750000  0.500000  0.664920  1.0
  Au  Au368  1  0.750000  0.750000  0.664920  1.0
  Au  Au369  1  0.000000  0.000000  0.914920  1.0
  Au  Au370  1  0.000000  0.250000  0.914920  1.0
  Au  Au371  1  0.000000  0.500000  0.914920  1.0
  Au  Au372  1  0.000000  0.750000  0.914920  1.0
  Au  Au373  1  0.250000  0.000000  0.914920  1.0
  Au  Au374  1  0.250000  0.250000  0.914920  1.0
  Au  Au375  1  0.250000  0.500000  0.914920  1.0
  Au  Au376  1  0.250000  0.750000  0.914920  1.0
  Au  Au377  1  0.500000  0.000000  0.914920  1.0
  Au  Au378  1  0.500000  0.250000  0.914920  1.0
  Au  Au379  1  0.500000  0.500000  0.914920  1.0
  Au  Au380  1  0.500000  0.750000  0.914920  1.0
  Au  Au381  1  0.750000  0.000000  0.914920  1.0
  Au  Au382  1  0.750000  0.250000  0.914920  1.0
  Au  Au383  1  0.750000  0.500000  0.914920  1.0
  Au  Au384  1  0.750000  0.750000  0.914920  1.0
